Version 4
SHEET 1 880 680
WIRE -112 160 -128 160
WIRE -96 160 -112 160
WIRE 32 160 16 160
WIRE 160 160 144 160
WIRE 288 160 272 160
WIRE 416 160 400 160
WIRE -128 256 -128 160
WIRE 528 256 528 160
WIRE 528 256 -128 256
FLAG -112 160 A
SYMBOL 74HCT\\74hct04 -48 96 R0
SYMATTR InstName U1
SYMBOL 74HCT\\74hct04 80 96 R0
SYMATTR InstName U2
SYMBOL 74HCT\\74hct04 208 96 R0
SYMATTR InstName U3
SYMBOL 74HCT\\74hct04 336 96 R0
SYMATTR InstName U4
SYMBOL 74HCT\\74hct04 464 96 R0
SYMATTR InstName U5
TEXT -136 264 Left 2 !.tran 0 0.01 0 1u
TEXT 112 48 Left 2 !.lib 74HCT.lib
