Version 4
SHEET 1 880 680
WIRE -272 -224 -272 -288
WIRE 160 0 48 0
WIRE 528 0 240 0
WIRE 48 128 48 0
WIRE 192 128 48 128
WIRE 48 144 48 128
WIRE 304 208 304 128
WIRE 528 208 528 0
WIRE 528 208 304 208
WIRE 608 208 528 208
WIRE 48 240 48 208
FLAG 48 240 0
FLAG 608 208 output
IOPIN 608 208 Out
SYMBOL cap 32 144 R0
SYMATTR InstName C1
SYMATTR Value 10n
SYMBOL res 256 -16 R90
WINDOW 0 0 56 VBottom 2
WINDOW 3 32 56 VTop 2
SYMATTR InstName R1
SYMATTR Value 2.2k
SYMBOL 74HCT\\74hct14 240 80 R0
SYMATTR InstName U1
TEXT 216 296 Left 2 !.lib 74HCT.lib
TEXT 0 -96 Left 4 ;Schmitt inverter oscillator circuit
TEXT -272 320 Left 2 !.tran 0 100u 0 1u
