Version 4
SHEET 1 880 680
WIRE 64 16 -176 16
WIRE 352 16 64 16
WIRE 464 16 352 16
WIRE 96 64 -32 64
WIRE 352 64 352 16
WIRE 352 64 320 64
WIRE -544 96 -592 96
WIRE 96 128 48 128
WIRE 464 128 464 96
WIRE 464 128 320 128
WIRE 464 160 464 128
WIRE -592 192 -592 96
WIRE 96 192 -592 192
WIRE 416 192 320 192
WIRE 64 256 64 16
WIRE 96 256 64 256
WIRE 368 256 320 256
WIRE 48 320 48 128
WIRE 416 320 416 192
WIRE 416 320 48 320
WIRE 464 320 464 240
WIRE 464 320 416 320
WIRE 368 336 368 256
WIRE 464 336 464 320
WIRE -176 400 -176 96
WIRE -32 400 -32 64
WIRE -32 400 -176 400
WIRE 368 400 -32 400
WIRE 464 400 368 400
WIRE -32 432 -32 400
FLAG -32 432 0
FLAG -544 96 output
IOPIN -544 96 Out
SYMBOL Misc\\NE555 208 160 R0
SYMATTR InstName U1
SYMBOL cap 352 336 R0
SYMATTR InstName C1
SYMATTR Value 10nf
SYMBOL cap 448 336 R0
SYMATTR InstName C2
SYMATTR Value 10nf
SYMBOL res 448 0 R0
SYMATTR InstName R1
SYMATTR Value 1k
SYMBOL res 448 144 R0
SYMATTR InstName R2
SYMATTR Value 1k
SYMBOL voltage -176 0 R0
WINDOW 123 0 0 Left 0
WINDOW 39 0 0 Left 0
SYMATTR InstName V1
SYMATTR Value 5v
TEXT -600 456 Left 2 !.tran .3m
