Version 4
SHEET 1 1000 680
WIRE -48 112 -112 112
WIRE 112 112 64 112
WIRE 272 112 224 112
WIRE 416 112 384 112
WIRE 544 112 528 112
WIRE 864 112 656 112
WIRE -112 240 -112 112
WIRE 656 240 656 112
WIRE 656 240 -112 240
FLAG 864 112 output
IOPIN 864 112 Out
SYMBOL 74HCT\\74hct04 0 48 R0
SYMATTR InstName U1
SYMBOL 74HCT\\74hct04 160 48 R0
SYMATTR InstName U2
SYMBOL 74HCT\\74hct04 320 48 R0
SYMATTR InstName U3
SYMBOL 74HCT\\74hct04 464 48 R0
SYMATTR InstName U4
SYMBOL 74HCT\\74hct04 592 48 R0
SYMATTR InstName U5
TEXT -18 326 Left 2 !.tran 0 .2u 0 1u
TEXT 344 328 Left 2 !.lib 74HCT.lib
TEXT 152 -56 Left 4 ;Ring Oscillator
